Version 4
SHEET 1 880 680
WIRE -48 112 -48 80
WIRE -48 240 -48 192
FLAG -48 240 0
SYMBOL voltage -48 96 R0
WINDOW 3 -58 52 Left 2
WINDOW 123 0 0 Left 2
WINDOW 39 0 0 Left 2
SYMATTR Value 1
SYMATTR InstName V1
TEXT -88 272 Left 2 !.tran 10m
